# Age Tracer set-up: No initial file means Age Tracer
# is automatically initialized uniformely to zero. 
 &PTRACERS_PARM01
 PTRACERS_Iter0=36000,
 PTRACERS_numInUse=1,

 PTRACERS_wRiseConst  = 1.E-3,
 
 PTRACERS_names(1)='MP',
 PTRACERS_diffKh(1)=0.E3,
 PTRACERS_diffKr(1)=3.E-5,
 PTRACERS_rho_p(1) = 1027.E0,
 PTRACERS_advScheme(1)=1,
 PTRACERS_initialFile(1)='surf1_adv_test.bin',

 &
