 &GCHEM_PARM01
  useCFC    = .FALSE.,
  useDIC    = .FALSE.,
  useBLING  = .FALSE.,
  useDARWIN = .FALSE.,
  nsubtime=1,

# Tracer source file
# source along coast based on Jambeck et al 2015.
# Filename1 = 'source2010_coast.bin',
 Filename1 = 'source2010_gdp_scaled.bin',
# Filename1 = '',
 &
