# Packages
 &PACKAGES
 useCAL   = .TRUE.,
 useEXF   = .TRUE.,
#useRBCS  = .TRUE.,
 useGMRedi= .TRUE.,
# useKPP   = .TRUE.,
# useSBO   = .TRUE.,
#useMNC   = .TRUE.,
 useSeaice= .FALSE.,
 useGGL90=.TRUE.,
 useSALT_PlUME=.TRUE.,
# useDOWN_SLOPE=.TRUE.,
 useDiagnostics=.FALSE.,
# useECCO=.TRUE.,
# useCTRL=.TRUE.,
# useProfiles=.TRUE.,
# useSMOOTH=.TRUE.,
#useGrdchk=.TRUE.,
#useLayers=.TRUE.,
useGCHEM=.TRUE.
usePtracers=.TRUE.,
#useBBL=.TRUE.,
 /
