# Packages
 &PACKAGES
 usePtracers=.TRUE.,
 useGCHEM=.TRUE.,
 useGMRedi= .TRUE.,
 useGGL90=.TRUE.,
 useSALT_PlUME=.TRUE.,
 useCAL   = .TRUE.,
 useSeaice= .TRUE.,
 useEXF   = .TRUE.,
 useDiagnostics=.FALSE.,
 useOFFLINE=.TRUE.,
# useRBCS  = .TRUE.,
# useKPP   = .TRUE.,
# useSBO   = .TRUE.,
# useMNC   = .TRUE.,
# useDOWN_SLOPE=.TRUE.,
# useECCO=.TRUE.,
# useCTRL=.TRUE.,
# useProfiles=.TRUE.,
# useSMOOTH=.TRUE.,
#useGrdchk=.TRUE.,
#useLayers=.TRUE.,
#useBBL=.TRUE.,
 /
