# Packages
 &PACKAGES
 useEXF   = .TRUE.,
#useRBCS  = .TRUE.,
 useGMRedi= .TRUE.,
# useKPP   = .TRUE.,
# useSBO   = .TRUE.,
#useMNC   = .TRUE.,
 useSeaice= .TRUE.,
 useGGL90=.TRUE.,
 useSALT_PlUME=.TRUE.,
# useDOWN_SLOPE=.TRUE.,
 useDiagnostics=.FALSE.,
 useECCO=.TRUE.,
# useCTRL=.TRUE.,
# useProfiles=.FALSE.,
# useSMOOTH=.FALSE.,
#useGrdchk=.TRUE.,
#useLayers=.TRUE.,
#
#useBBL=.TRUE.,
 usePTRACERS=.TRUE.,
 useGCHEM=.TRUE.,
 /
