# Packages
 &PACKAGES
 useCAL   = .TRUE.,
 useEXF   = .TRUE.,
 useGMRedi= .TRUE.,
 useSeaice= .TRUE.,
 useShelfIce=.TRUE.,
 useGGL90=.TRUE.,
 useSALT_PlUME=.TRUE.,
 useDiagnostics=.FALSE.,
 useTIMEAVE = .TRUE.
 usePTRACERS=.TRUE.,
 useGCHEM=.TRUE.,
 /
